Version 4.1
SHEET 1 2408 680
WIRE 1328 -240 752 -240
WIRE 1456 -240 1408 -240
WIRE 1648 -240 1584 -240
WIRE 1744 -240 1728 -240
WIRE 992 -96 896 -96
WIRE 1200 -96 1072 -96
WIRE 1456 -80 1456 -240
WIRE 1584 -80 1584 -240
WIRE 1584 -80 1456 -80
WIRE 1632 -80 1584 -80
WIRE 1744 -64 1744 -240
WIRE 1744 -64 1696 -64
WIRE 1824 -64 1744 -64
WIRE 1936 -64 1904 -64
WIRE 2016 -64 1936 -64
WIRE 1632 -48 1600 -48
WIRE 1936 -32 1936 -64
WIRE 896 0 896 -96
WIRE 1008 0 896 0
WIRE 1136 0 1072 0
WIRE 416 16 352 16
WIRE 560 16 496 16
WIRE 1376 32 1248 32
WIRE 1456 32 1456 -80
WIRE 1936 96 1936 32
WIRE 352 128 352 16
WIRE 416 128 352 128
WIRE 752 128 752 -240
WIRE 752 128 720 128
WIRE 800 128 752 128
WIRE 896 128 896 0
WIRE 896 128 880 128
WIRE 992 128 896 128
WIRE 560 144 560 16
WIRE 560 144 480 144
WIRE 1136 144 1136 0
WIRE 1136 144 1056 144
WIRE 1200 144 1200 -96
WIRE 1248 144 1248 32
WIRE 1248 144 1200 144
WIRE 272 160 272 144
WIRE 416 160 352 160
WIRE 992 160 976 160
WIRE 1200 176 1200 144
WIRE 352 192 352 160
WIRE 976 192 976 160
WIRE 1200 272 1200 256
WIRE 960 304 928 304
WIRE 1120 304 1040 304
WIRE 928 432 928 304
WIRE 960 432 928 432
WIRE 1120 448 1120 304
WIRE 1120 448 1024 448
WIRE 960 464 928 464
WIRE 928 496 928 464
FLAG 608 -352 pwr
FLAG 608 -272 0
FLAG 272 144 pwr
FLAG 352 272 0
FLAG 448 112 pwr
FLAG 448 176 0
FLAG 352 16 COM
FLAG 720 128 vin
FLAG 976 192 COM
FLAG 1024 112 pwr
FLAG 1024 176 0
FLAG 1248 144 vout1
FLAG 1200 272 COM
FLAG 1664 -32 0
FLAG 1664 -96 pwr
FLAG 1600 -48 COM
FLAG 1744 -64 vout2
FLAG 1936 96 COM
FLAG 2016 -64 vout3
FLAG 304 -256 0
FLAG 992 416 pwr
FLAG 992 480 0
FLAG 928 496 COM
FLAG 96 -256 0
FLAG 304 -336 msg
FLAG 96 -336 car
FLAG 96 -96 0
FLAG 96 -176 vin
DATAFLAG 352 48 ""
SYMBOL voltage 608 -368 R0
WINDOW 123 0 0 Left 0
WINDOW 39 0 0 Left 0
SYMATTR InstName V1
SYMATTR Value 3.3
SYMBOL res 368 144 R90
WINDOW 0 0 56 VBottom 2
WINDOW 3 32 56 VTop 2
SYMATTR InstName R1
SYMATTR Value 10k
SYMBOL res 336 176 R0
SYMATTR InstName R2
SYMATTR Value 10k
SYMBOL OpAmps\\UniversalOpAmp2 448 144 R0
SYMATTR InstName U1
SYMBOL res 512 0 R90
WINDOW 0 0 56 VBottom 2
WINDOW 3 32 56 VTop 2
SYMATTR InstName R3
SYMATTR Value 10k
SYMBOL res 896 112 R90
WINDOW 0 0 56 VBottom 2
WINDOW 3 32 56 VTop 2
SYMATTR InstName R4
SYMATTR Value 10k
SYMBOL OpAmps\\UniversalOpAmp2 1024 144 R0
SYMATTR InstName U2
SYMBOL diode 1072 -16 R90
WINDOW 0 0 32 VBottom 2
WINDOW 3 32 32 VTop 2
SYMATTR InstName D1
SYMBOL res 1088 -112 R90
WINDOW 0 0 56 VBottom 2
WINDOW 3 32 56 VTop 2
SYMATTR InstName R5
SYMATTR Value 20k
SYMBOL diode 1200 128 R90
WINDOW 0 0 32 VBottom 2
WINDOW 3 32 32 VTop 2
SYMATTR InstName D2
SYMBOL res 1184 160 R0
SYMATTR InstName R6
SYMATTR Value 10k
SYMBOL res 1424 -256 R90
WINDOW 0 0 56 VBottom 2
WINDOW 3 32 56 VTop 2
SYMATTR InstName R7
SYMATTR Value 10k
SYMBOL res 1472 16 R90
WINDOW 0 0 56 VBottom 2
WINDOW 3 32 56 VTop 2
SYMATTR InstName R8
SYMATTR Value 10k
SYMBOL OpAmps\\UniversalOpAmp2 1664 -64 R0
SYMATTR InstName U3
SYMBOL res 1744 -256 R90
WINDOW 0 0 56 VBottom 2
WINDOW 3 32 56 VTop 2
SYMATTR InstName R9
SYMATTR Value 10k
SYMBOL res 1920 -80 R90
WINDOW 0 0 56 VBottom 2
WINDOW 3 32 56 VTop 2
SYMATTR InstName R10
SYMATTR Value {R10val}
SYMBOL cap 1920 -32 R0
SYMATTR InstName C1
SYMATTR Value {C1val}
SYMBOL voltage 304 -352 R0
WINDOW 123 0 0 Left 0
WINDOW 39 0 0 Left 0
SYMATTR InstName V2
SYMATTR Value SINE(0 .3 1)
SYMBOL OpAmps\\UniversalOpAmp2 992 448 R0
SYMATTR InstName U4
SYMBOL res 1056 288 R90
WINDOW 0 0 56 VBottom 2
WINDOW 3 32 56 VTop 2
SYMATTR InstName R11
SYMATTR Value 20k
SYMBOL voltage 96 -352 R0
WINDOW 123 0 0 Left 0
WINDOW 39 0 0 Left 0
SYMATTR InstName V3
SYMATTR Value SINE(0 .6 1k)
SYMBOL bv 96 -192 R0
SYMATTR InstName B1
SYMATTR Value V=1.65 + V(msg)*V(car)
TEXT 576 -248 Left 2 !.tran 1s
TEXT 168 16 Left 2 ;virtual gnd
TEXT 1120 -128 Left 2 ;vout1 = -R5/R4*vin
TEXT 872 -168 Left 2 ;half-wave precision rectifier w/ gain -2
TEXT 1536 -328 Left 2 ;inverted voltage adder
TEXT 1896 -176 Left 2 ;RC low-pass filter
TEXT 1904 -384 Left 2 !.param R10val = 100k
TEXT 1920 -328 Left 2 !.param C1val = 100nF
TEXT 1872 -440 Left 2 !.param cutoffFreq={1/(2*pi*R10val*C1val)}
TEXT 1376 224 Left 2 ;vout2 = -R9*(vin/R7 + vout1/R8)
TEXT 2104 -88 Left 2 ;fc= 1/(2*pi*RC)
